Circuit: * D:\Proyecto_Final\Therpsicore\Amp_Comun+Voz+Limit_V2.asc

Direct Newton iteration for .op point succeeded.

Date: Tue Mar 02 14:28:59 2021
Total elapsed time: 12.796 seconds.

tnom = 27
temp = 27
method = modified trap
totiter = 766419
traniter = 766398
tranpoints = 230356
accept = 156366
rejected = 73990
matrix size = 95
fillins = 90
solver = Normal
Thread vector: 12.8/4.9[4] 4.4/2.3[4] 0.7/1.0[1] 0.7/1.8[1]  2592/500
Matrix Compiler1:     585 opcodes  3.0/[1.3]/1.4
Matrix Compiler2: 11.02 KB object code size  1.4/1.5/[0.8]

