Circuit: * D:\Proyecto_Final\Therpsicore\Amp_Comun+Voz.asc

Direct Newton iteration for .op point succeeded.

Date: Fri Jan 15 16:21:31 2021
Total elapsed time: 0.217 seconds.

tnom = 27
temp = 27
method = trap
totiter = 6
traniter = 0
tranpoints = 0
accept = 0
rejected = 0
matrix size = 66
fillins = 73
solver = Normal
Matrix Compiler1:     412 opcodes
Matrix Compiler2: 8.03 KB object code size
