Circuit: * D:\Proyecto_Final\Therpsicore\Amp_Comun+Voz+Limit_V2.asc

Direct Newton iteration for .op point succeeded.

Date: Mon Mar 01 09:16:47 2021
Total elapsed time: 6.827 seconds.

tnom = 27
temp = 27
method = modified trap
totiter = 494029
traniter = 493996
tranpoints = 152092
accept = 103055
rejected = 49037
matrix size = 96
fillins = 92
solver = Normal
Thread vector: 10.5/5.8[4] 4.2/2.4[4] 0.6/1.0[1] 0.6/1.7[1]  2592/500
Matrix Compiler1: 10.39 KB object code size  3.0/1.3/[0.9]
Matrix Compiler2: 10.88 KB object code size  1.3/1.9/[0.8]

