Circuit: * D:\Proyecto_Final\Therpsicore\Amp_Comun+Voz.asc

Direct Newton iteration for .op point succeeded.

Date: Thu Feb 04 15:58:34 2021
Total elapsed time: 1.940 seconds.

tnom = 27
temp = 27
method = modified trap
totiter = 163063
traniter = 163057
tranpoints = 81529
accept = 54747
rejected = 26782
matrix size = 66
fillins = 75
solver = Normal
Thread vector: 7.3/3.7[4] 3.2/1.9[4] 0.2/1.9[1] 0.4/1.5[1]  2592/500
Matrix Compiler1: 7.21 KB object code size  2.2/0.9/[0.5]
Matrix Compiler2: 8.06 KB object code size  0.9/1.0/[0.5]

