Circuit: * D:\Proyecto_Final\Therpsicore\Amp_Comun+Voz.asc

Direct Newton iteration for .op point succeeded.

Date: Tue Jan 12 16:47:34 2021
Total elapsed time: 0.801 seconds.

tnom = 27
temp = 27
method = modified trap
totiter = 80034
traniter = 80028
tranpoints = 40015
accept = 26737
rejected = 13278
matrix size = 58
fillins = 60
solver = Normal
Thread vector: 6.0/3.5[3] 3.1/2.0[3] 0.2/0.7[1] 0.4/1.5[1]  2592/500
Matrix Compiler1: 6.07 KB object code size  2.0/0.8/[0.5]
Matrix Compiler2: 6.74 KB object code size  0.7/0.8/[0.6]

