Circuit: * D:\Proyecto_Final\Therpsicore\Amplificador_Jose.asc

WARNING: Less than two connections to node NC_01.  This node is used by R26.
WARNING: Less than two connections to node N020.  This node is used by R30.
Direct Newton iteration for .op point succeeded.

Date: Mon Jan 11 12:41:54 2021
Total elapsed time: 0.168 seconds.

tnom = 27
temp = 27
method = trap
totiter = 4
traniter = 0
tranpoints = 0
accept = 0
rejected = 0
matrix size = 42
fillins = 42
solver = Normal
Matrix Compiler1:     280 opcodes
Matrix Compiler2: 4.82 KB object code size
