Circuit: * D:\Proyecto_Final\Therpsicore\Draft1.asc

Direct Newton iteration for .op point succeeded.

Date: Sun Feb 28 14:52:39 2021
Total elapsed time: 0.047 seconds.

tnom = 27
temp = 27
method = modified trap
totiter = 2754
traniter = 2734
tranpoints = 1336
accept = 1251
rejected = 85
matrix size = 11
fillins = 0
solver = Normal
Matrix Compiler1: 556 bytes object code size  0.2/0.1/[0.1]
Matrix Compiler2: off  [0.1]/0.1/0.1

