Circuit: * D:\Proyecto_Final\Therpsicore\Draft1.asc

WARNING: Node N003 is floating.


Date: Mon Jan 11 12:32:06 2021
Total elapsed time: 0.053 seconds.

tnom = 27
temp = 27
method = trap
totiter = 0
traniter = 0
tranpoints = 0
accept = 0
rejected = 0
matrix size = 6
fillins = 2
solver = Normal

